ipss.test.plugin.core/testData/psse/V32/aeso/2013_SMM.raw
0,   100.00, 33, 0, 1, 60.00     / PSS(R)E-33.4    THU, JUN 27 2013   0:33
TASMO MODEL; OUTPUT GENERATED 2012-09-18 09:38:48
SWINGBUS 1520 FOR 2012LPBL-1:2013-06-01:1:503--1-0-0-0
     1,'JUDY515S    ',  69.0000,1,  26,  99,  17,1.05363, -16.9596,1.10000,0.90000,1.10000,0.90000
     2,'MAYERTH     ', 138.0000,1,  40,  99,  17,1.02820, -13.7486,1.10000,0.90000,1.10000,0.90000
     3,'COLINTO7    ', 138.0000,1,  27,  99,  17,1.02243, -15.9968,1.10000,0.90000,1.10000,0.90000
     4,'WESTLOC7    ', 138.0000,1,  27,  99,  17,1.02309, -13.6998,1.10000,0.90000,1.10000,0.90000
     5,'CLYDE  7    ', 138.0000,1,  27,  99,  17,1.01902, -14.0993,1.10000,0.90000,1.10000,0.90000
     6,'DICKSOA9    ',   4.1600,1,  39,  99,   7,1.05107, -16.7097,1.10000,0.90000,1.10000,0.90000
     7,'BOYLE  7    ', 138.0000,1,  27,  99,  17,1.02874, -16.6903,1.10000,0.90000,1.10000,0.90000
     8,'WHI 3647    ', 138.0000,1,  26,  99,  17,1.03339, -14.9091,1.10000,0.90000,1.10000,0.90000
     9,'WHITECO7    ', 138.0000,1,  26,  99,  17,1.03435, -15.2300,1.10000,0.90000,1.10000,0.90000
    10,'WHITECO8    ',  69.0000,1,  26,  99,  17,1.06041, -14.4727,1.10000,0.90000,1.10000,0.90000
    12,'FOX CREE    ', 138.0000,1,  24,  99,  17,1.04098, -16.7903,1.10000,0.90000,1.10000,0.90000
    13,'KAYBOB 7    ', 138.0000,1,  24,  99,  17,1.03025, -16.1543,1.10000,0.90000,1.10000,0.90000
    14,'WESGEN 9    ',  13.8000,2,  27,  99,   4,1.02500, -10.7029,1.10000,0.90000,1.10000,0.90000
    15,'MTN COA7    ', 138.0000,1,  29,  99,  17,1.05601, -13.8227,1.10000,0.90000,1.10000,0.90000
    16,'FLATBUS7    ', 138.0000,1,  27,  99,  17,1.02717, -13.2604,1.10000,0.90000,1.10000,0.90000
    17,'COLD CR7    ', 138.0000,1,  29,  99,  17,1.06232, -14.2306,1.10000,0.90000,1.10000,0.90000
    18,'GULF RO7    ', 138.0000,1,  29,  99,  17,1.03875, -13.1314,1.10000,0.90000,1.10000,0.90000
    19,'WESGEN T    ', 138.0000,1,  27,  99,  17,1.02856, -13.1599,1.10000,0.90000,1.10000,0.90000
    20,'EDSON  7    ', 138.0000,1,  29,  99,  17,1.04475, -12.7050,1.10000,0.90000,1.10000,0.90000
    21,'WESGEN 7    ', 138.0000,1,  27,  99,   4,1.03007, -12.8694,1.10000,0.90000,1.10000,0.90000
    26,'ENTWIST7    ', 138.0000,1,  40,  99,  17,1.02508, -12.1592,1.10000,0.90000,1.10000,0.90000
    27,'WABAMUN8    ',  69.0000,1,  40,  99,  17,1.03029, -10.2896,1.10000,0.90000,1.10000,0.90000
    31,'FINCAST7    ', 138.0000,1,  52,  99,  17,1.01314, -18.6772,1.10000,0.90000,1.10000,0.90000
    32,'ONOWAY 8    ',  69.0000,1,  40,  99,  17,1.03087, -10.3186,1.10000,0.90000,1.10000,0.90000
    33,'BRAZEAA9    ',  13.2000,2,  30,  99,  17,1.02239, -12.7157,1.10000,0.90000,1.10000,0.90000
    35,'LODGEPO7    ', 138.0000,1,  30,  99,  17,1.01814, -12.3081,1.10000,0.90000,1.10000,0.90000
    36,'BRAZEAU7    ', 138.0000,1,  30,  99,  17,1.03088, -11.3694,1.10000,0.90000,1.10000,0.90000
    37,'HRT EXP7    ', 138.0000,1,  32,  99,  25,1.01784,  -9.1868,1.10000,0.90000,1.10000,0.90000
    38,'BRAZ OUT    ', 138.0000,1,  30,  99,  17,1.02780, -12.2038,1.10000,0.90000,1.10000,0.90000
    39,'CYNTHIA7    ', 138.0000,1,  30,  99,  17,1.02418, -13.6024,1.10000,0.90000,1.10000,0.90000
    40,'N CALDE7    ', 138.0000,1,  60,  99,  17,1.01002, -12.6582,1.10000,0.90000,1.10000,0.90000
    41,'N BARRH7    ', 138.0000,1,  40,  99,  17,1.03340, -12.8495,1.10000,0.90000,1.10000,0.90000
    42,'AMOCO BR    ', 138.0000,1,  30,  99,  17,1.02621, -13.6405,1.10000,0.90000,1.10000,0.90000
    43,'SCOTF_4     ', 138.0000,2,  33,  99,  29,1.03039, -12.7432,1.10000,0.90000,1.10000,0.90000
    44,'FT ASBN7    ', 138.0000,1,  40,  99,  17,1.04202, -14.5179,1.10000,0.90000,1.10000,0.90000
    47,'SHERWOO7    ', 138.0000,1,  60,  99,  17,1.03164, -12.6718,1.10000,0.90000,1.10000,0.90000
    48,'DIAM SH7    ', 138.0000,1,  33,  99,  17,1.03132, -12.6369,1.10000,0.90000,1.10000,0.90000
    49,'KEYSTON7    ', 138.0000,1,  30,  99,  17,1.02092,  -7.8906,1.10000,0.90000,1.10000,0.90000
    50,'RIVERSID    ', 138.0000,2,  33,  99, 211,1.02796, -12.6954,1.10000,0.90000,1.10000,0.90000
    51,'W PEMBI7    ', 138.0000,1,  30,  99,  17,1.02318, -13.7787,1.10000,0.90000,1.10000,0.90000
    52,'BLUERIDG    ', 138.0000,1,  26,  99,  17,1.02706, -14.9828,1.10000,0.90000,1.10000,0.90000
    53,'SANDYPT7    ', 138.0000,1,  48,  99,  17,1.03768, -15.2438,1.10000,0.90000,1.10000,0.90000
    55,'GULF OI7    ', 138.0000,1,  60,  99,  17,1.03895, -12.4227,1.10000,0.90000,1.10000,0.90000
    56,'IPPL ED7    ', 138.0000,1,  60,  99,  17,1.03977, -12.3892,1.10000,0.90000,1.10000,0.90000
    57,'LAMOURE4    ', 240.0000,1,  33,  99,  17,1.04518, -11.3177,1.10000,0.90000,1.10000,0.90000
    58,'FORT SA7    ', 138.0000,1,  60,  99,  17,1.02805, -12.4910,1.10000,0.90000,1.10000,0.90000
    59,'REDWATE7    ', 138.0000,1,  33,  99,  17,1.01690, -13.1109,1.10000,0.90000,1.10000,0.90000
    60,'BEAMER 7    ', 138.0000,1,  33,  99,  17,1.02505, -12.8676,1.10000,0.90000,1.10000,0.90000
    61,'UN CARB9    ', 138.0000,2,  33,  99, 191,1.03000, -12.3374,1.10000,0.90000,1.10000,0.90000
    62,'SHERRIT7    ', 138.0000,1,  33,  99,  17,1.02815, -12.4558,1.10000,0.90000,1.10000,0.90000
    63,'LAMOURE7    ', 138.0000,1,  33,  99,  17,1.02981, -12.2914,1.10000,0.90000,1.10000,0.90000
    64,'BANFF  7    ', 138.0000,1,  44,  99,  17,1.01269, -21.7808,1.10000,0.90000,1.10000,0.90000
    65,'BARDO  7    ', 138.0000,1,  31,  99,  17,1.02607, -13.4850,1.10000,0.90000,1.10000,0.90000
    66,'IOL 737L    ', 138.0000,1,  60,  99,  17,1.03829, -12.4585,1.10000,0.90000,1.10000,0.90000
    67,'BRUDERH7    ', 138.0000,1,  33,  99,  17,1.02276, -12.7162,1.10000,0.90000,1.10000,0.90000
    68,'N HOLDE7    ', 138.0000,1,  56,  99,  17,1.03273, -12.7586,1.10000,0.90000,1.10000,0.90000
    69,'IOL 738L    ', 138.0000,1,  60,  99,  17,1.03343, -12.7580,1.10000,0.90000,1.10000,0.90000
    70,'CAMROSE7    ', 138.0000,1,  31,  99,  17,1.01799, -14.2112,1.10000,0.90000,1.10000,0.90000
    71,'JARROW 8    ',  69.0000,1,  32,  99,  17,1.04404, -10.3897,1.10000,0.90000,1.10000,0.90000
    72,'JARROW 7    ', 138.0000,1,  32,  99,  17,1.02610, -10.3628,1.10000,0.90000,1.10000,0.90000
    73,'HARDIST7    ', 138.0000,1,  32,  99,  17,1.01786,  -9.1453,1.10000,0.90000,1.10000,0.90000
    74,'METIS647    ', 138.0000,1,  37,  99,  17,1.03042, -10.6099,1.10000,0.90000,1.10000,0.90000
    75,'HUGHEND7    ', 138.0000,1,  37,  99,  17,1.01970, -10.1269,1.10000,0.90000,1.10000,0.90000
    76,'IPPL ST7    ', 138.0000,1,  56,  99,  17,1.04911,  -8.8723,1.10000,0.90000,1.10000,0.90000
    77,'WAINWRI8    ',  69.0000,1,  32,  99,  17,1.04518, -10.5026,1.10000,0.90000,1.10000,0.90000
    78,'SEDGEWI7    ', 138.0000,1,  32,  99,  17,1.03317,  -7.3460,1.10000,0.90000,1.10000,0.90000
    79,'BUFFALO7    ', 138.0000,1,  32,  99,  17,1.02800, -13.5397,1.10000,0.90000,1.10000,0.90000
    80,'BUCKLAK7    ', 138.0000,1,  30,  99,  17,1.01220, -11.0878,1.10000,0.90000,1.10000,0.90000
    81,'BIGSTON4    ', 240.0000,1,  31,  99,  17,1.01916, -10.1091,1.10000,0.90000,1.10000,0.90000
    82,'CHEVRON7    ', 138.0000,1,  24,  99,  17,1.03000, -16.1630,1.10000,0.90000,1.10000,0.90000
    83,'RBCUPIL7    ', 138.0000,1,  17,  99,  21,1.08674, -12.5946,1.10000,0.90000,1.10000,0.90000
    85,'MILLAR 7    ', 138.0000,1,  26,  99,  17,1.01323, -15.5452,1.10000,0.90000,1.10000,0.90000
    86,'PROVOST7    ', 138.0000,1,  37,  99,  17,1.02207, -10.9850,1.10000,0.90000,1.10000,0.90000
    87,'METIS644    ', 240.0000,1,  37,  99,  17,1.06017,  -8.8655,1.10000,0.90000,1.10000,0.90000
    88,'BICKERD7    ', 138.0000,1,  29,  99,  17,1.04753, -12.2411,1.10000,0.90000,1.10000,0.90000
    89,'E EDMON7    ', 138.0000,1,  60,  99,  17,1.04052, -12.3507,1.10000,0.90000,1.10000,0.90000
    90,'BICKERD4    ', 240.0000,1,  29,  99,  17,1.09542, -10.5392,1.10000,0.90000,1.10000,0.90000
    91,'NISKU  7    ', 138.0000,1,  60,  99,  17,1.02095, -14.5231,1.10000,0.90000,1.10000,0.90000
    93,'WETASKI7    ', 138.0000,1,  31,  99,  17,1.03506, -13.9465,1.10000,0.90000,1.10000,0.90000
    94,'ERVICK 7    ', 138.0000,1,  31,  99,  17,1.02024, -14.2493,1.10000,0.90000,1.10000,0.90000
    95,'PONOKA 7    ', 138.0000,1,  31,  99,  17,1.01809, -14.9618,1.10000,0.90000,1.10000,0.90000
    96,'DEVON  7    ', 138.0000,1,  60,  99,  17,1.00858, -14.6449,1.10000,0.90000,1.10000,0.90000
    97,'ECKVILL7    ', 138.0000,1,  35,  99,  17,1.02426, -13.4138,1.10000,0.90000,1.10000,0.90000
    98,'RIMBEY 7    ', 138.0000,1,  35,  99,  17,1.01401, -13.8617,1.10000,0.90000,1.10000,0.90000
    99,'BENALTO7    ', 138.0000,1,  35,  99,  17,1.03147, -13.0841,1.10000,0.90000,1.10000,0.90000
   100,'ROCKY M7    ', 138.0000,1,  38,  99,  17,1.00835, -14.7072,1.10000,0.90000,1.10000,0.90000
   101,'COOKING7    ', 138.0000,1,  60,  99,  17,1.02797, -13.2212,1.10000,0.90000,1.10000,0.90000
   102,'BIGHORN1    ',  13.8000,2,  34,  99,  17,0.98729, -10.7060,1.10000,0.90000,1.10000,0.90000
   103,'BIG HOR7    ', 138.0000,1,  34,  99,  17,1.00704, -10.7060,1.10000,0.90000,1.10000,0.90000
   104,'STRACHA7    ', 138.0000,1,  38,  99,  17,1.00899, -15.0111,1.10000,0.90000,1.10000,0.90000
   105,'PIGEON 7    ', 138.0000,1,  31,  99,  17,1.02683, -14.1689,1.10000,0.90000,1.10000,0.90000
   106,'DEERLAN7    ', 138.0000,1,  33,  99,  17,1.02177, -12.5984,1.10000,0.90000,1.10000,0.90000
   107,'SUNDRE 7    ', 138.0000,1,  38,  99,  17,0.98145, -17.4473,1.10000,0.90000,1.10000,0.90000
   108,'BIGHORN2    ',  13.8000,2,  34,  99,  17,0.97200,  -4.7002,1.10000,0.90000,1.10000,0.90000
   109,'DEERLAN4    ', 240.0000,1,  33,  99,  17,1.05833, -11.9214,1.10000,0.90000,1.10000,0.90000
   110,'IPL EDM7    ', 138.0000,1,  60,  99,  17,1.03977, -12.3900,1.10000,0.90000,1.10000,0.90000
   111,'SANDHIL7    ', 138.0000,1,  48,  99,  17,1.03766, -15.2606,1.10000,0.90000,1.10000,0.90000
   112,'SUNKEN7     ', 138.0000,1,  37,  99,  17,1.03021, -10.6094,1.10000,0.90000,1.10000,0.90000
   113,'BLACKFA7    ', 138.0000,1,  35,  99,  17,1.01963, -14.9134,1.10000,0.90000,1.10000,0.90000
   114,'LACOMBE7    ', 138.0000,1,  35,  99,  17,1.01595, -15.0809,1.10000,0.90000,1.10000,0.90000
   115,'S RED DE    ', 138.0000,1,  35,  99,  17,1.02603, -14.4930,1.10000,0.90000,1.10000,0.90000
   116,'W LACOMB    ', 138.0000,1,  35,  99,  17,1.01799, -15.0029,1.10000,0.90000,1.10000,0.90000
   117,'RED DE A    ', 138.0000,1,  35,  99,  17,1.02801, -14.2955,1.10000,0.90000,1.10000,0.90000
   118,'RED DE B    ', 138.0000,1,  35,  99,  17,1.02801, -14.2955,1.10000,0.90000,1.10000,0.90000
   119,'N RED D7    ', 138.0000,1,  35,  99,  17,1.02622, -14.5934,1.10000,0.90000,1.10000,0.90000
   120,'INNISFA7    ', 138.0000,1,  39,  99,  17,1.01308, -15.9028,1.10000,0.90000,1.10000,0.90000
   121,'OLDS   7    ', 138.0000,1,  39,  99,  17,0.99536, -17.7595,1.10000,0.90000,1.10000,0.90000
   122,'MADDEN 7    ', 138.0000,1,  39,  99,  17,0.99223, -19.3234,1.10000,0.90000,1.10000,0.90000
   123,'DIDSBURY    ', 138.0000,1,  39,  99,  17,0.99418, -18.3715,1.10000,0.90000,1.10000,0.90000
   124,'HARMATT7    ', 138.0000,1,  39,  99,  17,0.99208, -18.2595,1.10000,0.90000,1.10000,0.90000
   125,'YASAA7      ', 138.0000,1,  60,  99,  17,1.03934, -12.4031,1.10000,0.90000,1.10000,0.90000
   126,'SHELL H7    ', 138.0000,1,  39,  99,  17,0.99251, -18.3597,1.10000,0.90000,1.10000,0.90000
   127,'BEDDING2    ', 138.0000,1,   6,  99,   3,1.02344, -19.1082,1.10000,0.90000,1.10000,0.90000
   128,'ELLERSLI    ', 240.0000,1,  60,  99,  17,1.02972,  -7.2599,1.10000,0.90000,1.10000,0.90000
   130,'SUND#3GN    ',  20.0000,2,  40,  99,  17,1.02500,   0.1316,1.10000,0.90000,1.10000,0.90000
   131,'SUNDANA8    ',  69.0000,1,  40,  99,  17,1.01844,  -8.6343,1.10000,0.90000,1.10000,0.90000
   132,'SUNDANC7    ', 138.0000,1,  40,  99,  17,1.03267,  -6.3437,1.10000,0.90000,1.10000,0.90000
   133,'WABAMUN4    ', 240.0000,1,  40,  99,  17,1.07180,  -8.2071,1.10000,0.90000,1.10000,0.90000
   134,'WABAMUN7    ', 138.0000,1,  40,  99,  17,1.03480, -10.5631,1.10000,0.90000,1.10000,0.90000
   135,'SUNDANC4    ', 240.0000,1,  40,  99,  17,1.08365,  -6.9000,1.10000,0.90000,1.10000,0.90000
   136,'E EDMON4    ', 240.0000,1,  60,  99,  17,1.02364,  -8.4699,1.10000,0.90000,1.10000,0.90000
   137,'N CALDE4    ', 240.0000,1,  60,  99,  17,1.04501, -10.3372,1.10000,0.90000,1.10000,0.90000
   138,'N BARRH4    ', 240.0000,1,  40,  99,  17,1.10225, -11.1225,1.10000,0.90000,1.10000,0.90000
   141,'DALEHUR7    ', 138.0000,1,  29,  99,  17,1.05672, -13.7783,1.10000,0.90000,1.10000,0.90000
   142,'KINGMAN7    ', 138.0000,1,  31,  99,  17,1.02223, -13.7967,1.10000,0.90000,1.10000,0.90000
   144,'ALGAR  7    ', 138.0000,1,  61,  99,   1,1.06949, -12.6157,1.10000,0.90000,1.10000,0.90000
   147,'GAETZ  4    ', 240.0000,1,  35,  99,  17,1.03269, -12.5417,1.10000,0.90000,1.10000,0.90000
   148,'GAETZ  7    ', 138.0000,1,  35,  99,  17,1.02918, -14.4274,1.10000,0.90000,1.10000,0.90000
   150,'WILLESD4    ', 240.0000,1,  30,  99,  17,1.05120,  -9.9993,1.10000,0.90000,1.10000,0.90000
   151,'BRAZ#1 9    ',  13.8000,2,  30,  99,  17,1.05000,  -3.9944,1.10000,0.90000,1.10000,0.90000
   152,'RED DEE4    ', 240.0000,1,  35,  99,  17,1.04084, -12.3779,1.10000,0.90000,1.10000,0.90000
   153,'BRAZEAU4    ', 240.0000,1,  30,  99,  17,1.05058,  -9.2914,1.10000,0.90000,1.10000,0.90000
   154,'BRAZ#2 9    ',  13.8000,2,  30,  99,  17,0.98039,  -9.2914,1.10000,0.90000,1.10000,0.90000
   155,'BENALTO4    ', 240.0000,1,  35,  99,  17,1.04955, -11.0090,1.10000,0.90000,1.10000,0.90000
   156,'E CROSS4    ', 240.0000,1,  57,  99,  17,1.04529, -15.3238,1.10000,0.90000,1.10000,0.90000
   157,'COCHIN 8    ',  69.0000,1,  32,  99, 241,1.04508, -10.5056,1.10000,0.90000,1.10000,0.90000
   158,'LANGDON2    ', 500.0000,1,   6,  99,  17,1.05897, -13.0755,1.10000,0.90000,1.10000,0.90000
   159,'LANGDON4    ', 240.0000,1,   6,  99,  17,1.05400, -14.7455,1.10000,0.90000,1.10000,0.90000
   160,'JANET  4    ', 240.0000,1,   6,  99,  17,1.04430, -16.2166,1.10000,0.90000,1.10000,0.90000
   161,'SARCEE 4    ', 240.0000,1,   6,  99,  17,1.03195, -17.7285,1.10000,0.90000,1.10000,0.90000
   162,'E CALGAR    ', 240.0000,1,   6,  99,  17,1.02424, -17.2858,1.10000,0.90000,1.10000,0.90000
   163,'SAGITAW4    ', 240.0000,1,  26,  99,  17,1.07311, -13.2811,1.10000,0.90000,1.10000,0.90000
   164,'SAGITAW7    ', 138.0000,1,  26,  99,  17,1.03408, -14.5980,1.10000,0.90000,1.10000,0.90000
   165,'PEIGAN 4    ', 240.0000,1,  53,  99, 191,1.05291, -13.4953,1.10000,0.90000,1.10000,0.90000
   166,'PEIGAN 7    ', 138.0000,1,  53,  99, 191,1.00869, -11.3776,1.10000,0.90000,1.10000,0.90000
   167,'N LETHB4    ', 240.0000,1,  54,  99,  17,1.05445, -14.4877,1.10000,0.90000,1.10000,0.90000
   168,'SUNSHIN8    ',  69.0000,1,  44,  99,  17,0.99520, -27.5191,1.10000,0.90000,1.10000,0.90000
   169,'CAN CEM7    ', 138.0000,1,  44,  99,  17,1.01550, -21.0789,1.10000,0.90000,1.10000,0.90000
   170,'COCHRAN7    ', 138.0000,1,  44,  99,  17,0.99961, -21.3910,1.10000,0.90000,1.10000,0.90000
   171,'SEEBE  7    ', 138.0000,1,  44,  99, 191,1.01721, -20.5030,1.10000,0.90000,1.10000,0.90000
   172,'HORS GEN    ',  12.0000,2,  44,  99,  17,1.02500, -17.4256,1.10000,0.90000,1.10000,0.90000
   173,'BRETV A7    ', 138.0000,1,  60,  99,  17,1.03894, -12.4214,1.10000,0.90000,1.10000,0.90000
   174,'SPRAY G1    ',  13.2000,2,  44,  99,  17,1.01908, -21.2233,1.10000,0.90000,1.10000,0.90000
   175,'CASCADE7    ', 138.0000,1,  44,  99, 194,1.01510, -21.6575,1.10000,0.90000,1.10000,0.90000
   176,'CASCADE9    ',  13.2000,2,  44,  99, 194,1.03059, -20.7922,1.10000,0.90000,1.10000,0.90000
   177,'AIRDRIE     ', 138.0000,1,  57,  99,  17,1.01257, -18.6227,1.10000,0.90000,1.10000,0.90000
   178,'BANFF  8    ',  69.0000,1,  44,  99,  17,0.99798, -27.3558,1.10000,0.90000,1.10000,0.90000
   179,'MARIANA7    ', 138.0000,1,  61,  99,   1,1.07342, -12.5889,1.10000,0.90000,1.10000,0.90000
   180,'GHOST  7    ', 138.0000,1,  44,  99,  17,1.00692, -20.5252,1.10000,0.90000,1.10000,0.90000
   181,'GHOST A9    ',  13.2000,2,  44,  99,  17,1.00000, -16.6867,1.10000,0.90000,1.10000,0.90000
   183,'BEARSPWB    ',  13.2000,2,  44,  99,  17,1.04041, -20.3482,1.10000,0.90000,1.10000,0.90000
   184,'BEARSPAW    ', 138.0000,1,  44,  99,  17,1.00514, -21.2413,1.10000,0.90000,1.10000,0.90000
   187,'BEDDING1    ', 240.0000,1,   6,  99,   3,1.03528, -16.7535,1.10000,0.90000,1.10000,0.90000
   188,'ANG COCA    ',  25.0000,1,  44,  99,  17,1.05027, -22.8343,1.10000,0.90000,1.10000,0.90000
   189,'ANG COCB    ',  13.8000,2,  44,  99,  17,1.00560, -24.5466,1.10000,0.90000,1.10000,0.90000
   190,'SPRAY G2    ',  13.2000,2,  44,  99,  17,1.01908, -21.2233,1.10000,0.90000,1.10000,0.90000
   191,'ANG COCH    ', 138.0000,1,  44,  99,  17,0.99813, -21.4132,1.10000,0.90000,1.10000,0.90000
   192,'NELSON L    ', 138.0000,1,  31,  99,  17,1.01481, -15.1159,1.10000,0.90000,1.10000,0.90000
   193,'KANANAS7    ', 138.0000,1,  44,  99,  17,1.01817, -20.4489,1.10000,0.90000,1.10000,0.90000
   194,'LAKE LO8    ',  69.0000,1,  44,  99,  17,0.97109, -27.9972,1.10000,0.90000,1.10000,0.90000
   195,'RUNDLE S    ', 138.0000,1,  44,  99,  17,1.01905, -21.2982,1.10000,0.90000,1.10000,0.90000
   196,'KANANAS9    ',  12.0000,2,  44,  99,  17,1.04786, -17.0267,1.10000,0.90000,1.10000,0.90000
   197,'RUNDLE G    ',  13.8000,2,  44,  99,  17,1.04761, -21.3728,1.10000,0.90000,1.10000,0.90000
   198,'BALZAC 7    ', 138.0000,1,   6,  99,  17,1.02340, -19.0668,1.10000,0.90000,1.10000,0.90000
   199,'SHELL J7    ', 138.0000,1,  44,  99,  17,1.00448, -20.7594,1.10000,0.90000,1.10000,0.90000
   201,'JUMPPND7    ', 138.0000,1,  44,  99,  17,1.01147, -20.7430,1.10000,0.90000,1.10000,0.90000
   202,'SARCEE 7    ', 138.0000,1,   6,  99,  17,1.01006, -20.5606,1.10000,0.90000,1.10000,0.90000
   203,'SARCEE C    ',  13.8000,1,   6,  99,  17,1.04932, -20.6481,1.10000,0.90000,1.10000,0.90000
   204,'MCMILLA4    ', 240.0000,1,  61,  99,   1,1.11427, -11.2930,1.10000,0.90000,1.10000,0.90000
   205,'AMOCO R7    ', 138.0000,1,  38,  99,  17,0.98368, -16.8141,1.10000,0.90000,1.10000,0.90000
   207,'JANET  7    ', 138.0000,1,   6,  99,  17,1.01081, -19.5756,1.10000,0.90000,1.10000,0.90000
   208,'ENMX2S 7    ', 138.0000,1,   6,  99,   3,1.00948, -21.0302,1.10000,0.90000,1.10000,0.90000
   209,'BRETONA1    ', 138.0000,1,  60,  99,  17,1.03403, -12.7471,1.10000,0.90000,1.10000,0.90000
   210,'SJPC_TP     ', 138.0000,1,  44,  99,  17,1.00467, -20.7508,1.10000,0.90000,1.10000,0.90000
   211,'MOUNT A7    ', 138.0000,1,  44,  99,  17,1.01932, -20.8807,1.10000,0.90000,1.10000,0.90000
   213,'HAIGRIVE    ', 138.0000,1,  17,  99,   1,1.09911, -15.4165,1.10000,0.90000,1.10000,0.90000
   214,'POCATEA9    ',  13.8000,2,  44,  99,  17,1.00289, -18.4957,1.10000,0.90000,1.10000,0.90000
   215,'TEX.W.P7    ', 138.0000,1,  30,  99,  17,1.02140, -13.3937,1.10000,0.90000,1.10000,0.90000
   216,'BARRIER7    ', 138.0000,1,  44,  99,  17,1.01883, -20.6142,1.10000,0.90000,1.10000,0.90000
   217,'SJP_CRK     ', 138.0000,1,  44,  99,  17,1.00462, -20.7531,1.10000,0.90000,1.10000,0.90000
   218,'BLACKMUD    ', 138.0000,1,  60,  99,  17,1.01621, -14.6322,1.10000,0.90000,1.10000,0.90000
   219,'KILLARN7    ', 138.0000,1,  37,  99,  17,1.02009, -14.2131,1.10000,0.90000,1.10000,0.90000
   220,'HAYTER 7    ', 138.0000,1,  37,  99,  17,1.00610, -14.7880,1.10000,0.90000,1.10000,0.90000
   221,'CRR-W1      ', 240.0000,1,  53,  99,  58,1.04542, -12.9998,1.10000,0.90000,1.10000,0.90000
   222,'BARRIER9    ',  13.2000,2,  44,  99,  17,1.03000, -17.5135,1.10000,0.90000,1.10000,0.90000
   223,'PINCHER8    ',  69.0000,1,  53,  99,  17,1.02451, -12.4047,1.10000,0.90000,1.10000,0.90000
   224,'PINCHER7    ', 138.0000,1,  53,  99,  17,1.04814, -12.0902,1.10000,0.90000,1.10000,0.90000
   225,'WARE JCT    ', 240.0000,1,  47,  99,  17,1.07149, -10.0454,1.10000,0.90000,1.10000,0.90000
   226,'DRYWOOD8    ',  69.0000,1,  55,  99,  17,1.01701, -13.3636,1.10000,0.90000,1.10000,0.90000
   227,'SHELL WA    ',  69.0000,1,  55,  99,  17,1.00441, -13.6934,1.10000,0.90000,1.10000,0.90000
...
0 / END OF BUS DATA, BEGIN LOAD DATA
    14,'99',1,  27,  99,     0.051,     0.026,     0.000,     0.000,     0.000,     0.000,   4,1,0
    33,'99',1,  30,  99,     2.156,     1.079,     0.000,     0.000,     0.000,     0.000,  17,1,0
    43,'37',1,  33,  37,   183.968,    91.984,     0.000,     0.000,     0.000,     0.000,  29,1,0
    43,'99',1,  33,  99,    37.218,    18.616,     0.000,     0.000,     0.000,     0.000,  29,1,0
    50,'37',1,  33,  37,    13.296,     6.648,     0.000,     0.000,     0.000,     0.000, 211,1,0
    50,'99',1,  33,  99,     9.029,     4.516,     0.000,     0.000,     0.000,     0.000, 211,1,0
    61,'37',1,  33,  37,    29.990,    14.995,     0.000,     0.000,     0.000,     0.000, 191,1,0
    61,'99',1,  33,  99,    36.742,    18.379,     0.000,     0.000,     0.000,     0.000, 191,1,0
    79,'99',1,  32,  99,     0.001,     0.001,     0.000,     0.000,     0.000,     0.000,  17,1,0
    80,'99',1,  30,  99,     0.097,     0.049,     0.000,     0.000,     0.000,     0.000,  17,1,0
   127,'99',1,   6,  99,     9.309,     4.657,     0.000,     0.000,     0.000,     0.000,   3,1,0
   130,'36',1,  40,  36,    21.900,    11.000,     0.000,     0.000,     0.000,     0.000,  17,1,0
   165,'99',1,  53,  99,     0.001,     0.001,     0.000,     0.000,     0.000,     0.000, 191,1,0
   167,'99',1,  54,  99,     0.001,     0.001,     0.000,     0.000,     0.000,     0.000,  17,1,0
   176,'99',1,  44,  99,     0.410,     0.205,     0.000,     0.000,     0.000,     0.000, 194,1,0
   180,'99',1,  44,  99,     5.218,     2.610,     0.000,     0.000,     0.000,     0.000,  17,1,0
   188,'99',1,  44,  99,     7.133,     3.568,     0.000,     0.000,     0.000,     0.000,  17,1,0
   189,'99',1,  44,  99,     9.170,     4.587,     0.000,     0.000,     0.000,     0.000,  17,1,0
   197,'99',1,  44,  99,     0.054,     0.027,     0.000,     0.000,     0.000,     0.000,  17,1,0
   208,'99',1,   6,  99,     0.009,     0.005,     0.000,     0.000,     0.000,     0.000,   3,1,0
   214,'99',1,  44,  99,     0.079,     0.040,     0.000,     0.000,     0.000,     0.000,  17,1,0
   222,'99',1,  44,  99,     0.024,     0.012,     0.000,     0.000,     0.000,     0.000,  17,1,0
   234,'99',1,  53,  99,     0.050,     0.025,     0.000,     0.000,     0.000,     0.000,  44,1,0
   239,'99',1,  46,  99,     7.505,     3.754,     0.000,     0.000,     0.000,     0.000,  17,1,0
   248,'37',1,  28,  37,    23.922,    11.961,     0.000,     0.000,     0.000,     0.000,  36,1,0
   255,'99',1,  53,  99,     0.041,     0.021,     0.000,     0.000,     0.000,     0.000,  17,1,0
   265,'99',1,  53,  99,     0.041,     0.021,     0.000,     0.000,     0.000,     0.000,  17,1,0
   268,'99',1,  48,  99,     3.270,     1.635,     0.000,     0.000,     0.000,     0.000,  17,1,0
   271,'99',1,   4,  99,     0.001,     0.001,     0.000,     0.000,     0.000,     0.000,  17,1,0
   274,'99',1,  52,  99,    11.415,     5.710,     0.000,     0.000,     0.000,     0.000,  17,1,0
   287,'99',1,  48,  99,     4.671,     2.336,     0.000,     0.000,     0.000,     0.000,  17,1,0
   288,'99',1,  48,  99,     2.335,     1.168,     0.000,     0.000,     0.000,     0.000,  17,1,0
   289,'99',1,  48,  99,     3.036,     1.519,     0.000,     0.000,     0.000,     0.000,  17,1,0
   296,'99',1,  53,  99,     0.002,     0.001,     0.000,     0.000,     0.000,     0.000,  17,1,0
   305,'99',1,  27,  99,     8.720,     4.362,     0.000,     0.000,     0.000,     0.000,  17,1,0
   330,'99',1,  30,  99,    17.219,     8.613,     0.000,     0.000,     0.000,     0.000,  17,1,0
   342,'36',1,  40,  36,    21.700,    10.900,     0.000,     0.000,     0.000,     0.000,  17,1,0
   345,'36',1,  40,  36,    21.700,    10.900,     0.000,     0.000,     0.000,     0.000,  17,1,0
   346,'99',1,  53,  99,     0.005,     0.003,     0.000,     0.000,     0.000,     0.000,  17,1,0
   348,'99',1,  61,  99,     0.771,     0.386,     0.000,     0.000,     0.000,     0.000,  17,1,0
   350,'36',1,  40,  36,    23.800,    11.900,     0.000,     0.000,     0.000,     0.000,  17,1,0
   375,'99',1,  44,  99,     0.138,     0.069,     0.000,     0.000,     0.000,     0.000,  17,1,0
   380,'99',1,  44,  99,     1.870,     0.936,     0.000,     0.000,     0.000,     0.000,  17,1,0
   383,'37',1,  35,  37,    47.667,    23.833,     0.000,     0.000,     0.000,     0.000,  17,1,0
   383,'99',1,  35,  99,    71.435,    35.732,     0.000,     0.000,     0.000,     0.000,  17,1,0
   403,'36',1,  40,  36,    20.900,    10.400,     0.000,     0.000,     0.000,     0.000,  17,1,0
   405,'36',1,  61,  36,     3.000,     1.500,     0.000,     0.000,     0.000,     0.000, 251,1,0
   405,'37',1,  61,  37,     9.391,     4.696,     0.000,     0.000,     0.000,     0.000, 251,1,0
   407,'99',1,  54,  99,     0.005,     0.002,     0.000,     0.000,     0.000,     0.000,  17,1,0
   408,'99',1,  26,  99,     0.056,     0.028,     0.000,     0.000,     0.000,     0.000,  17,1,0
   414,'99',1,  55,  99,     0.005,     0.002,     0.000,     0.000,     0.000,     0.000,  17,1,0
   422,'36',1,  40,  36,    23.700,    11.800,     0.000,     0.000,     0.000,     0.000,  17,1,0
   424,'36',1,  40,  36,    24.300,    12.200,     0.000,     0.000,     0.000,     0.000,  17,1,0
   440,'99',1,  31,  99,     0.020,     0.010,     0.000,     0.000,     0.000,     0.000,  17,1,0
   478,'99',1,  44,  99,    18.803,     9.406,     0.000,     0.000,     0.000,     0.000,  17,1,0
   479,'99',1,  44,  99,     0.054,     0.027,     0.000,     0.000,     0.000,     0.000,  17,1,0
   490,'36',1,  40,  36,    42.500,    21.200,     0.000,     0.000,     0.000,     0.000,   5,1,0
   491,'36',1,  40,  36,    25.000,    12.500,     0.000,     0.000,     0.000,     0.000,   5,1,0
   492,'36',1,  40,  36,    24.200,    12.100,     0.000,     0.000,     0.000,     0.000,   5,1,0
   666,'99',1,  58,  99,     0.381,     0.191,     0.000,     0.000,     0.000,     0.000,   1,1,0
   680,'35',1,   4,  35,     1.320,     0.000,     0.000,     0.000,     0.000,     0.000,  17,1,0
   680,'37',1,   4,  37,   104.006,    52.003,     0.000,     0.000,     0.000,     0.000,  17,1,0
   910,'99',1,  29,  99,     0.000,     0.000,     0.000,     0.000,     0.000,     0.000,  17,1,0
  1029,'99',1,  17,  99,    11.420,     5.712,     0.000,     0.000,     0.000,     0.000,   1,1,0
  1031,'99',1,  17,  99,     6.382,     3.192,     0.000,     0.000,     0.000,     0.000,   1,1,0
  1032,'99',1,  17,  99,    15.786,     7.896,     0.000,     0.000,     0.000,     0.000,   1,1,0
  1037,'99',1,  17,  99,     0.000,     0.000,     0.000,     0.000,     0.000,     0.000,  21,1,0
  1050,'99',1,  19,  99,     2.430,     1.215,     0.000,     0.000,     0.000,     0.000,   1,1,0
  1089,'34',1,  19,  34,    27.000,    12.000,     0.000,     0.000,     0.000,     0.000,  33,1,0
  1101,'37',1,  20,  37,     5.264,     2.632,     0.000,     0.000,     0.000,     0.000,  30,1,0
  1146,'37',1,  20,  37,    14.832,     7.416,     0.000,     0.000,     0.000,     0.000,  39,1,0
  1146,'99',1,  20,  99,     0.513,     0.257,     0.000,     0.000,     0.000,     0.000,  39,1,0
  1148,'36',1,  22,  36,    12.100,     6.100,     0.000,     0.000,     0.000,     0.000,   1,1,0
  1167,'99',1,  23,  99,     0.018,     0.009,     0.000,     0.000,     0.000,     0.000,   1,1,0
  1168,'99',1,  23,  99,     0.025,     0.012,     0.000,     0.000,     0.000,     0.000,   1,1,0
  1171,'35',1,  23,  35,     8.507,     0.000,     0.000,     0.000,     0.000,     0.000,   1,1,0
  1171,'99',1,  23,  99,     0.267,     0.134,     0.000,     0.000,     0.000,     0.000,   1,1,0
  1173,'35',1,  23,  35,     1.553,     0.000,     0.000,     0.000,     0.000,     0.000,   1,1,0
  1173,'99',1,  23,  99,     0.267,     0.134,     0.000,     0.000,     0.000,     0.000,   1,1,0
  1200,'99',1,  59,  99,     0.150,     0.075,     0.000,     0.000,     0.000,     0.000,   1,1,0
  1205,'37',1,  59,  37,   381.767,   190.883,     0.000,     0.000,     0.000,     0.000,   9,1,0
  1208,'35',1,  59,  35,     1.201,     0.000,     0.000,     0.000,     0.000,     0.000,  10,1,0
  1208,'37',1,  59,  37,   343.777,   171.888,     0.000,     0.000,     0.000,     0.000,  10,1,0
  1208,'99',1,  59,  99,     0.000,     0.000,     0.000,     0.000,     0.000,     0.000,  10,1,0
  1224,'99',1,  59,  99,     7.299,     3.651,     0.000,     0.000,     0.000,     0.000,   1,1,0
  1231,'99',1,  21,  99,    20.578,    10.293,     0.000,     0.000,     0.000,     0.000,   1,1,0
  1232,'99',1,  21,  99,    20.578,    10.293,     0.000,     0.000,     0.000,     0.000,   1,1,0
  1236,'37',1,  59,  37,    25.872,    12.936,     0.000,     0.000,     0.000,     0.000,  40,1,0
  1236,'99',1,  59,  99,     0.381,     0.191,     0.000,     0.000,     0.000,     0.000,  40,1,0
  1241,'37',1,  61,  37,    89.943,    44.972,     0.000,     0.000,     0.000,     0.000,  99,1,0
  1251,'37',1,  58,  37,    53.899,    26.950,     0.000,     0.000,     0.000,     0.000, 261,1,0
  1251,'99',1,  58,  99,     9.019,     4.511,     0.000,     0.000,     0.000,     0.000, 261,1,0
  1262,'37',1,  58,  37,    17.020,     8.510,     0.000,     0.000,     0.000,     0.000, 261,1,0
  1262,'99',1,  58,  99,     2.017,     1.009,     0.000,     0.000,     0.000,     0.000, 261,1,0
  1274,'37',1,  58,  37,     8.982,     4.491,     0.000,     0.000,     0.000,     0.000,   1,1,0
  1289,'37',1,  59,  37,    68.209,    34.105,     0.000,     0.000,     0.000,     0.000, 481,1,0
  1301,'36',1,  28,  36,     2.600,     1.400,     0.000,     0.000,     0.000,     0.000,  63,1,0
  1301,'37',1,  28,  37,    37.272,    18.636,     0.000,     0.000,     0.000,     0.000,  63,1,0
  1301,'99',1,  28,  99,     4.647,     2.324,     0.000,     0.000,     0.000,     0.000,  63,1,0
  1302,'37',1,  28,  37,    72.221,    36.110,     0.000,     0.000,     0.000,     0.000,   1,1,0
  1383,'99',1,  13,  99,     0.032,     0.016,     0.000,     0.000,     0.000,     0.000,   1,1,0
  1471,'99',1,  42,  99,    10.166,     5.085,     0.000,     0.000,     0.000,     0.000,   1,1,0
  1473,'34',1,  48,  34,   -11.190,     0.000,     0.000,     0.000,     0.000,     0.000,   1,1,0
  1474,'99',1,  42,  99,    11.016,     5.510,     0.000,     0.000,     0.000,     0.000,   1,1,0
  1482,'36',1,  43,  36,    12.900,     6.500,     0.000,     0.000,     0.000,     0.000,   1,1,0
  1484,'99',1,  43,  99,     0.001,     0.000,     0.000,     0.000,     0.000,     0.000,   1,1,0
  1487,'36',1,  43,  36,    13.900,     6.900,     0.000,     0.000,     0.000,     0.000,   1,1,0
  1495,'36',1,  36,  36,     6.900,     3.500,     0.000,     0.000,     0.000,     0.000,   1,1,0
  1496,'36',1,  36,  36,     9.300,     4.700,     0.000,     0.000,     0.000,     0.000,   1,1,0
  1497,'36',1,  36,  36,    17.800,     8.900,     0.000,     0.000,     0.000,     0.000,   1,1,0
  1503,'34',1,  15,  34,    10.000,     3.300,     0.000,     0.000,     0.000,     0.000,   2,1,0
  1504,'34',1,  15,  34,    10.000,     3.300,     0.000,     0.000,     0.000,     0.000,   2,1,0
  1505,'34',1,  15,  34,    10.000,     3.300,     0.000,     0.000,     0.000,     0.000,   2,1,0
  1506,'34',1,  15,  34,    10.000,     3.300,     0.000,     0.000,     0.000,     0.000,   2,1,0
  1681,'99',1,  59,  99,    27.699,    13.855,     0.000,     0.000,     0.000,     0.000,  36,1,0
  1683,'99',1,  59,  99,     7.554,     3.779,     0.000,     0.000,     0.000,     0.000,  36,1,0
  1684,'99',1,  59,  99,    27.699,    13.855,     0.000,     0.000,     0.000,     0.000,  36,1,0
  2017,'99',1,  44,  99,     3.066,     1.534,     0.000,     0.000,     0.000,     0.000,  17,1,0
  2018,'99',1,  44,  99,     3.066,     1.534,     0.000,     0.000,     0.000,     0.000,  17,1,0
  2053,'99',1,  48,  99,     3.256,     1.629,     0.000,     0.000,     0.000,     0.000,  17,1,0
  2060,'99',1,  33,  99,    11.965,     5.985,     0.000,     0.000,     0.000,     0.000,  17,1,0
  2062,'99',1,  33,  99,     8.162,     4.083,     0.000,     0.000,     0.000,     0.000,  17,1,0
  2063,'99',1,  33,  99,     8.370,     4.187,     0.000,     0.000,     0.000,     0.000,  17,1,0
  2085,'99',1,  26,  99,    26.813,    13.412,     0.000,     0.000,     0.000,     0.000,  17,1,0
  2089,'99',1,  60,  99,    14.476,     7.241,     0.000,     0.000,     0.000,     0.000,  17,1,0
  2103,'99',1,  34,  99,     1.840,     0.920,     0.000,     0.000,     0.000,     0.000,  17,1,0
  2125,'99',1,  60,  99,     9.419,     4.712,     0.000,     0.000,     0.000,     0.000,  17,1,0
  2169,'99',1,  44,  99,     5.903,     2.952,     0.000,     0.000,     0.000,     0.000,  17,1,0
  2173,'99',1,  60,  99,     5.160,     2.581,     0.000,     0.000,     0.000,     0.000,  17,1,0
  2198,'99',1,   6,  99,     8.395,     4.199,     0.000,     0.000,     0.000,     0.000,  17,1,0
  2208,'99',1,   6,  99,     8.672,     4.338,     0.000,     0.000,     0.000,     0.000,   3,1,0
  2218,'99',1,  60,  99,     9.444,     4.724,     0.000,     0.000,     0.000,     0.000,  17,1,0
  2231,'99',1,  55,  99,     2.036,     1.018,     0.000,     0.000,     0.000,     0.000,  17,1,0
  2242,'99',1,  46,  99,    13.857,     6.931,     0.000,     0.000,     0.000,     0.000,  17,1,0
  2260,'99',1,  48,  99,    12.716,     6.361,     0.000,     0.000,     0.000,     0.000,  17,1,0
  2266,'99',1,  48,  99,     3.552,     1.776,     0.000,     0.000,     0.000,     0.000,  17,1,0
  2269,'99',1,  52,  99,     8.700,     4.351,     0.000,     0.000,     0.000,     0.000,  17,1,0
  2284,'99',1,   4,  99,     2.451,     1.226,     0.000,     0.000,     0.000,     0.000,  17,1,0
  2297,'99',1,  32,  99,     8.912,     4.458,     0.000,     0.000,     0.000,     0.000,  17,1,0
  2298,'99',1,  26,  99,    31.529,    15.771,     0.000,     0.000,     0.000,     0.000,  17,1,0
  2311,'99',1,  60,  99,    17.682,     8.844,     0.000,     0.000,     0.000,     0.000,  17,1,0
  2315,'99',1,  45,  99,     5.928,     2.965,     0.000,     0.000,     0.000,     0.000,  17,1,0
  2340,'99',1,  45,  99,     6.843,     3.423,     0.000,     0.000,     0.000,     0.000,  17,1,0
  2344,'99',1,  48,  99,     2.493,     1.247,     0.000,     0.000,     0.000,     0.000,  17,1,0
  2357,'99',1,  60,  99,    12.532,     6.268,     0.000,     0.000,     0.000,     0.000,  17,1,0
  2364,'99',1,  40,  99,    10.774,     5.389,     0.000,     0.000,     0.000,     0.000,  17,1,0
  2366,'99',1,  60,  99,     9.578,     4.791,     0.000,     0.000,     0.000,     0.000,  17,1,0
  2368,'99',1,  29,  99,     4.525,     2.263,     0.000,     0.000,     0.000,     0.000,  17,1,0
  2369,'99',1,  61,  99,    11.815,     5.910,     0.000,     0.000,     0.000,     0.000,  17,1,0
  2370,'99',1,  61,  99,    15.661,     7.834,     0.000,     0.000,     0.000,     0.000,  17,1,0
  2373,'99',1,  32,  99,     3.926,     1.964,     0.000,     0.000,     0.000,     0.000,  17,1,0
  2384,'99',1,  35,  99,    32.702,    16.357,     0.000,     0.000,     0.000,     0.000,  17,1,0
  2389,'99',1,  54,  99,     0.038,     0.019,     0.000,     0.000,     0.000,     0.000,  10,1,0
  2392,'37',1,  27,  37,    52.914,    26.457,     0.000,     0.000,     0.000,     0.000, 301,1,0
  2397,'99',1,  29,  99,    11.664,     5.834,     0.000,     0.000,     0.000,     0.000,  17,1,0
  2399,'99',1,  47,  99,    10.572,     5.288,     0.000,     0.000,     0.000,     0.000,  17,1,0
  2402,'99',1,  53,  99,     0.039,     0.020,     0.000,     0.000,     0.000,     0.000, 192,1,0
  2415,'99',1,  29,  99,     1.393,     0.697,     0.000,     0.000,     0.000,     0.000,  17,1,0
  2417,'99',1,  27,  99,    14.035,     7.020,     0.000,     0.000,     0.000,     0.000,  17,1,0
  2503,'99',1,  57,  99,     0.068,     0.034,     0.000,     0.000,     0.000,     0.000,   3,1,0
  2514,'99',1,  60,  99,     4.420,     2.211,     0.000,     0.000,     0.000,     0.000,   5,1,0
  2515,'99',1,  60,  99,    12.098,     6.052,     0.000,     0.000,     0.000,     0.000,  17,1,0
  2550,'99',1,   6,  99,    11.562,     5.783,     0.000,     0.000,     0.000,     0.000,   3,1,0
  2551,'99',1,   6,  99,    11.071,     5.538,     0.000,     0.000,     0.000,     0.000,   3,1,0
  2555,'99',1,   6,  99,    13.699,     6.852,     0.000,     0.000,     0.000,     0.000,   3,1,0
  2556,'99',1,   6,  99,     3.167,     1.584,     0.000,     0.000,     0.000,     0.000,   3,1,0
  2559,'99',1,   6,  99,     6.913,     3.458,     0.000,     0.000,     0.000,     0.000,   3,1,0
  2561,'99',1,   6,  99,    13.021,     6.513,     0.000,     0.000,     0.000,     0.000,   3,1,0
  2564,'99',1,   6,  99,     3.124,     1.562,     0.000,     0.000,     0.000,     0.000,   3,1,0
  2567,'99',1,   6,  99,    19.045,     9.526,     0.000,     0.000,     0.000,     0.000,   3,1,0
  2568,'99',1,   6,  99,     8.382,     4.193,     0.000,     0.000,     0.000,     0.000,   3,1,0
  2571,'99',1,   6,  99,     3.273,     1.637,     0.000,     0.000,     0.000,     0.000,   3,1,0
  2572,'99',1,   6,  99,    10.989,     5.497,     0.000,     0.000,     0.000,     0.000,   3,1,0
  2573,'99',1,   6,  99,     6.199,     3.101,     0.000,     0.000,     0.000,     0.000,   3,1,0
  2576,'99',1,   6,  99,    18.830,     9.419,     0.000,     0.000,     0.000,     0.000,   3,1,0
  2578,'99',1,   6,  99,     1.537,     0.769,     0.000,     0.000,     0.000,     0.000,   3,1,0
  2579,'99',1,   6,  99,     8.814,     4.409,     0.000,     0.000,     0.000,     0.000,   3,1,0
  2582,'99',1,   6,  99,     4.218,     2.110,     0.000,     0.000,     0.000,     0.000,   3,1,0
  2585,'99',1,   6,  99,     9.862,     4.933,     0.000,     0.000,     0.000,     0.000,   3,1,0
  2588,'99',1,   6,  99,    16.667,     8.337,     0.000,     0.000,     0.000,     0.000,   3,1,0
  2589,'99',1,   6,  99,    10.207,     5.105,     0.000,     0.000,     0.000,     0.000,   3,1,0
  2598,'99',1,   6,  99,    16.600,     8.304,     0.000,     0.000,     0.000,     0.000,   3,1,0
  2605,'99',1,  29,  99,     1.174,     0.587,     0.000,     0.000,     0.000,     0.000,  17,1,0
  2621,'99',1,  42,  99,     0.013,     0.007,     0.000,     0.000,     0.000,     0.000, 371,1,0
  2622,'99',1,  42,  99,     0.013,     0.007,     0.000,     0.000,     0.000,     0.000, 371,1,0
  2623,'99',1,  42,  99,     0.010,     0.005,     0.000,     0.000,     0.000,     0.000, 371,1,0
  2624,'99',1,  42,  99,     0.013,     0.007,     0.000,     0.000,     0.000,     0.000, 371,1,0
  2625,'99',1,  42,  99,     0.016,     0.008,     0.000,     0.000,     0.000,     0.000, 371,1,0
  2690,'99',1,  54,  99,    11.486,     5.745,     0.000,     0.000,     0.000,     0.000,  17,1,0
  2716,'99',1,  42,  99,     1.019,     0.510,     0.000,     0.000,     0.000,     0.000, 391,1,0
  2763,'99',1,  53,  99,     0.160,     0.080,     0.000,     0.000,     0.000,     0.000, 190,1,0
  2771,'99',1,  33,  99,     1.051,     0.526,     0.000,     0.000,     0.000,     0.000,  17,1,0
  2779,'99',1,  40,  99,     2.046,     1.023,     0.000,     0.000,     0.000,     0.000,  17,1,0
  2780,'99',1,  35,  99,     4.959,     2.481,     0.000,     0.000,     0.000,     0.000,  17,1,0
  2834,'99',1,  33,  99,    17.538,     8.773,     0.000,     0.000,     0.000,     0.000,  40,1,0
  2858,'99',1,  27,  99,     4.665,     2.333,     0.000,     0.000,     0.000,     0.000, 321,1,0
  2878,'99',1,  61,  99,     1.244,     0.622,     0.000,     0.000,     0.000,     0.000,  17,1,0
  2879,'99',1,  61,  99,     1.244,     0.622,     0.000,     0.000,     0.000,     0.000,  17,1,0
  2901,'99',1,  53,  99,     0.021,     0.011,     0.000,     0.000,     0.000,     0.000,  44,1,0
  2920,'99',1,  61,  99,     4.575,     2.288,     0.000,     0.000,     0.000,     0.000,  17,1,0
...
0 / END OF LOAD DATA, BEGIN FIXED SHUNT DATA
  1089,'1 ',0,     0.000,    36.000
0 / END OF FIXED SHUNT DATA, BEGIN GENERATOR DATA
    14,'1 ',    11.956,    -1.827,     8.200,    -5.600,1.02500,     0,    21.000, 0.00000E+0, 1.30000E-1, 0.00000E+0, 0.00000E+0,1.00000,1,  100.0,    17.000,     6.000,   4,1.0000
    33,'1 ',     0.000,     0.000,     4.100,    -2.800,1.02200,     0,     9.300, 2.00000E-3, 2.10000E-1, 0.00000E+0, 0.00000E+0,1.00000,0,  100.0,     8.400,    -0.500,  17,1.0000
    33,'2 ',     0.000,     0.000,     4.100,    -2.800,1.02200,     0,     9.300, 2.00000E-3, 2.20000E-1, 0.00000E+0, 0.00000E+0,1.00000,0,  100.0,     8.400,    -0.500,  17,1.0000
    43,'1 ',    -0.526,     0.000,     0.000,     0.000,1.07000,     0,     4.000, 0.00000E+0, 2.50000E-1, 0.00000E+0, 0.00000E+0,1.00000,1,  100.0,     0.000,    -4.000,  29,1.0000
    43,'2 ',    -0.526,     0.000,     0.000,     0.000,1.07000,     0,     4.000, 0.00000E+0, 2.50000E-1, 0.00000E+0, 0.00000E+0,1.00000,1,  100.0,     0.000,    -4.000,  29,1.0000
    43,'3 ',    -0.526,     0.000,     0.000,     0.000,1.07000,     0,     4.000, 0.00000E+0, 2.50000E-1, 0.00000E+0, 0.00000E+0,1.00000,1,  100.0,     0.000,    -4.000,  29,1.0000
    43,'4 ',    -0.526,     0.000,     0.000,     0.000,1.07000,     0,     4.000, 0.00000E+0, 2.50000E-1, 0.00000E+0, 0.00000E+0,1.00000,1,  100.0,     0.000,    -4.000,  29,1.0000
    43,'G1',    96.000,    41.900,    41.900,   -28.400,1.07000,     0,    96.100, 1.66000E-3, 2.10000E-1, 0.00000E+0, 0.00000E+0,1.00000,1,  100.0,    96.000,     0.000,  29,1.0000
    43,'G2',    -1.053,    -4.100,    -4.100,    -4.100,1.07000,     0,     9.000, 0.00000E+0, 1.67000E-1, 0.00000E+0, 0.00000E+0,1.00000,1,  100.0,     0.000,    -9.000,  29,1.0000
    43,'GT',    87.992,    48.100,    48.100,   -32.700,1.07000,     0,   110.400, 4.00000E-3, 2.19000E-1, 0.00000E+0, 0.00000E+0,1.00000,1,  100.0,    99.400,    20.000,  29,1.0000
    43,'M1',    -1.579,     0.000,     0.000,     0.000,1.07000,     0,    12.800, 0.00000E+0, 3.20000E-1, 0.00000E+0, 0.00000E+0,1.00000,1,  100.0,     0.000,   -11.190,  29,1.0000
    43,'M2',    -1.579,     0.000,     0.000,     0.000,1.07000,     0,    12.800, 0.00000E+0, 3.20000E-1, 0.00000E+0, 0.00000E+0,1.00000,1,  100.0,     0.000,   -11.190,  29,1.0000
    43,'M3',    -1.579,     0.000,     0.000,     0.000,1.07000,     0,    12.800, 0.00000E+0, 3.20000E-1, 0.00000E+0, 0.00000E+0,1.00000,1,  100.0,     0.000,   -11.190,  29,1.0000
    43,'M4',    -1.579,     0.000,     0.000,     0.000,1.07000,     0,    12.800, 0.00000E+0, 3.20000E-1, 0.00000E+0, 0.00000E+0,1.00000,1,  100.0,     0.000,   -11.190,  29,1.0000
    43,'M5',    -1.579,     0.000,     0.000,     0.000,1.07000,     0,    12.800, 0.00000E+0, 3.20000E-1, 0.00000E+0, 0.00000E+0,1.00000,1,  100.0,     0.000,   -11.190,  29,1.0000
    43,'M6',    -3.159,     0.000,     0.000,     0.000,1.07000,     0,    25.600, 0.00000E+0, 2.33000E-1, 0.00000E+0, 0.00000E+0,1.00000,1,  100.0,     0.000,   -25.600,  29,1.0000
    43,'ST',     0.000,    46.300,    46.300,   -31.400,1.07000,     0,   106.300, 3.84000E-3, 1.80000E-1, 0.00000E+0, 0.00000E+0,1.00000,0,  100.0,    95.700,    10.000,  29,1.0000
    50,'1 ',    36.501,    31.000,    31.000,   -21.100,1.03000,     0,    71.200, 0.00000E+0, 1.81000E-1, 0.00000E+0, 0.00000E+0,1.00000,1,  100.0,    64.100,    20.000, 211,1.0000
    61,'G1',    84.547,    47.349,    48.200,   -32.700,1.03000,     0,   110.600, 0.00000E+0, 3.00000E-1, 0.00000E+0, 0.00000E+0,1.00000,1,  100.0,    99.500,     0.000, 191,1.0000
    61,'G2',     4.200,    -0.133,    48.200,   -32.700,1.03000,     0,   110.600, 0.00000E+0, 3.00000E-1, 0.00000E+0, 0.00000E+0,1.00000,0,  100.0,    99.500,     0.000, 191,1.0000
    61,'GT',    31.400,    -0.991,    42.300,   -28.700,1.03000,     0,    97.000, 4.00000E-3, 2.00000E-1, 0.00000E+0, 0.00000E+0,1.00000,0,  100.0,    95.000,    17.000, 191,1.0000
    61,'M1',    -1.459,     0.000,     0.000,    -5.800,1.03000,     0,     9.900, 6.40000E-3, 1.98000E-1, 0.00000E+0, 0.00000E+0,1.00000,1,  100.0,     0.000,    -9.698, 191,1.0000
    61,'M2',    -1.823,     0.000,     0.000,     0.000,1.03000,     0,    12.500, 5.50000E-3, 2.50000E-1, 0.00000E+0, 0.00000E+0,1.00000,1,  100.0,     0.000,   -12.520, 191,1.0000
    61,'ST',    14.800,    -0.467,    23.800,   -15.000,1.03000,     0,    50.600, 5.00000E-3, 2.00000E-1, 0.00000E+0, 0.00000E+0,1.00000,0,  100.0,    45.500,    12.000, 191,1.0000
   102,'1 ',    23.000,    -1.786,    28.600,   -19.400,0.97300,     0,    65.500, 1.95000E-3, 3.40000E-1, 0.00000E+0, 0.00000E+0,1.00000,0,  100.0,    60.000,     0.000,  17,1.0000
   108,'2 ',    45.908,    -6.164,    28.600,   -19.400,0.97200,     0,    65.500, 1.95000E-3, 3.40000E-1, 0.00000E+0, 0.00000E+0,1.00000,1,  100.0,    60.000,     0.000,  17,1.0000
   130,'3A',   303.746,    30.006,   188.900,  -128.200,1.02500,     0,   483.300, 5.10000E-3, 2.07000E-1, 0.00000E+0, 0.00000E+0,1.00000,1,  100.0,   395.000,   155.500,  17,1.0000
   151,'1 ',   121.196,     2.261,    80.200,   -54.400,1.05000,     0,   184.000, 2.00000E-3, 2.42000E-1, 0.00000E+0, 0.00000E+0,1.00000,1,  100.0,   160.000,     0.000,  17,1.0000
   154,'2 ',   150.000,    34.043,    90.200,   -61.200,0.98000,     0,   207.000, 2.00000E-3, 3.30000E-1, 0.00000E+0, 0.00000E+0,1.00000,0,  100.0,   190.000,    -3.100,  17,1.0000
   172,'1 ',     5.600,    -1.800,     2.700,    -1.800,1.02500,     0,     6.300, 2.00000E-3, 2.00000E-1, 0.00000E+0, 0.00000E+0,1.00000,1,  100.0,     5.600,     0.000,  17,1.0000
   172,'2 ',     3.400,    -1.100,     1.600,    -1.100,1.02500,     0,     3.800, 2.00000E-3, 2.00000E-1, 0.00000E+0, 0.00000E+0,1.00000,1,  100.0,     3.400,     0.000,  17,1.0000
   172,'3 ',     3.400,    -1.100,     1.600,    -1.100,1.02500,     0,     3.800, 2.00000E-3, 2.00000E-1, 0.00000E+0, 0.00000E+0,1.00000,1,  100.0,     3.400,     0.000,  17,1.0000
   172,'4 ',     1.736,    -0.891,     2.700,    -1.800,1.02500,     0,     6.300, 2.00000E-3, 2.00000E-1, 0.00000E+0, 0.00000E+0,1.00000,1,  100.0,     5.600,     0.000,  17,1.0000
   174,'1 ',     0.000,    17.016,    31.600,   -18.000,1.04663,     0,    54.600, 2.00000E-3, 2.20000E-1, 0.00000E+0, 0.00000E+0,1.00000,0,  100.0,    50.000,     0.000,  17,1.0000
   176,'1 ',     7.573,     8.700,     8.700,    -5.900,1.04775,     0,    20.000, 1.00000E-3, 2.50000E-1, 0.00000E+0, 0.00000E+0,1.00000,1,  100.0,    18.000,    -0.500, 194,1.0000
   176,'2 ',     3.800,     9.600,     9.600,    -5.800,1.04775,     0,    20.000, 1.00000E-3, 3.30000E-1, 0.00000E+0, 0.00000E+0,1.00000,0,  100.0,    18.000,    -2.000, 194,1.0000
   181,'2 ',    16.200,     2.016,     7.800,    -5.300,1.00000,     0,    15.000, 2.00000E-3, 1.70000E-1, 0.00000E+0, 0.00000E+0,1.00000,1,  100.0,    16.200,     0.000,  17,1.0000
   181,'3 ',    18.000,     2.240,     8.700,    -5.900,1.00000,     0,    15.000, 2.00000E-3, 1.70000E-1, 0.00000E+0, 0.00000E+0,1.00000,1,  100.0,    18.000,     0.000,  17,1.0000
   181,'4A',     8.517,     1.060,    12.800,    -8.700,1.00000,     0,    31.100, 1.00000E-3, 3.70000E-1, 0.00000E+0, 0.00000E+0,1.00000,1,  100.0,    26.500,    -0.500,  17,1.0000
   183,'1 ',    13.653,    -5.300,     7.800,    -5.300,1.01500,     0,    18.000, 2.00000E-3, 2.10000E-1, 0.00000E+0, 0.00000E+0,1.00000,1,  100.0,    17.400,     0.000,  17,1.0000
   189,'1 ',    -6.312,     0.000,     0.000,     0.000,1.00000,     0,    15.000, 0.00000E+0, 2.50000E-1, 0.00000E+0, 0.00000E+0,1.00000,1,  100.0,     0.000,   -15.000,  17,1.0000
   189,'2 ',    -6.312,     0.000,     0.000,     0.000,1.00000,     0,    15.000, 0.00000E+0, 2.50000E-1, 0.00000E+0, 0.00000E+0,1.00000,1,  100.0,     0.000,   -15.000,  17,1.0000
   190,'2A',     0.000,    -3.952,    27.100,   -18.400,1.00000,     0,    62.200, 1.00000E-3, 3.20000E-1, 0.00000E+0, 0.00000E+0,1.00000,0,  100.0,    56.000,     0.000,  17,1.0000
   196,'1 ',     5.000,     1.900,     1.900,    -1.300,1.04786,     0,     4.300, 2.00000E-3, 2.00000E-1, 0.00000E+0, 0.00000E+0,1.00000,1,  100.0,     5.000,     0.000,  17,1.0000
   196,'2 ',     5.000,     1.900,     1.900,    -1.300,1.04786,     0,     4.300, 2.00000E-3, 2.00000E-1, 0.00000E+0, 0.00000E+0,1.00000,1,  100.0,     5.000,     0.000,  17,1.0000
   196,'3 ',     6.629,     4.247,     4.900,    -3.300,1.04786,     0,    11.300, 2.00000E-3, 3.00000E-1, 0.00000E+0, 0.00000E+0,1.00000,1,  100.0,    10.000,     0.000,  17,1.0000
   197,'2 ',     0.032,     7.207,    15.300,   -10.400,1.04761,     0,    35.000, 2.00000E-3, 2.00000E-1, 0.00000E+0, 0.00000E+0,1.00000,1,  100.0,    33.000,    -1.000,  17,1.0000
   214,'1 ',     2.123,     6.500,     6.500,    -4.400,1.03415,     0,    15.000, 2.00000E-3, 1.60000E-1, 0.00000E+0, 0.00000E+0,1.00000,1,  100.0,    14.100,     0.000,  17,1.0000
   222,'1 ',     7.050,     1.316,     4.900,    -3.300,1.03000,     0,    11.300, 2.00000E-3, 2.50000E-1, 0.00000E+0, 0.00000E+0,1.00000,1,  100.0,    11.000,     0.000,  17,1.0000
   248,'1 ',   100.800,    28.220,    48.800,   -33.100,1.04000,     0,   112.000, 0.00000E+0, 2.27100E-1, 0.00000E+0, 0.00000E+0,1.00000,1,  100.0,   100.800,    16.000,  36,1.0000
   248,'2 ',    42.100,    11.786,    48.800,   -33.100,1.04000,     0,   112.000, 0.00000E+0, 2.27100E-1, 0.00000E+0, 0.00000E+0,1.00000,1,  100.0,   100.800,    16.000,  36,1.0000
   255,'1 ',     0.900,     0.000,     0.000,     0.000,1.02560,     0,    14.000, 3.00000E-1, 2.30000E-1, 0.00000E+0, 0.00000E+0,1.00000,1,  100.0,    11.300,     0.000,  17,1.0000
   265,'1 ',     0.713,     0.000,     0.000,     0.000,1.02551,     0,    13.800, 3.00000E-1, 2.30000E-1, 0.00000E+0, 0.00000E+0,1.00000,1,  100.0,    10.100,     0.000,  17,1.0000
   268,'1 ',    -2.411,     0.000,     0.000,     0.000,1.00000,     0,    22.400, 0.00000E+0, 1.60000E-1, 0.00000E+0, 0.00000E+0,1.00000,1,  100.0,     0.000,   -22.400,  17,1.0000
   268,'E1',    -0.241,    -0.120,     0.000,     0.000,1.00000,     0,     2.600, 0.00000E+0, 1.60000E-1, 0.00000E+0, 0.00000E+0,1.00000,0,  100.0,     0.000,    -2.600,  17,1.0000
   268,'F1',    -0.723,     0.000,     0.000,     0.000,1.00000,     0,     8.200, 0.00000E+0, 1.60000E-1, 0.00000E+0, 0.00000E+0,1.00000,1,  100.0,     0.000,    -8.200,  17,1.0000
   268,'F2',    -0.723,     0.000,     0.000,     0.000,1.00000,     0,     8.200, 0.00000E+0, 1.60000E-1, 0.00000E+0, 0.00000E+0,1.00000,1,  100.0,     0.000,    -8.200,  17,1.0000
   287,'1 ',   -13.354,     0.000,     0.000,     0.000,1.01747,     0,    22.400, 0.00000E+0, 1.60000E-1, 0.00000E+0, 0.00000E+0,1.00000,1,  100.0,     0.000,   -22.400,  17,1.0000
   287,'E2',    -0.703,     0.000,     0.000,     0.000,1.01747,     0,     2.600, 0.00000E+0, 1.60000E-1, 0.00000E+0, 0.00000E+0,1.00000,1,  100.0,     0.000,    -2.600,  17,1.0000
   288,'1 ',    -2.411,     0.000,     0.000,     0.000,1.00723,     0,    22.400, 0.00000E+0, 1.60000E-1, 0.00000E+0, 0.00000E+0,1.00000,1,  100.0,     0.000,   -22.400,  17,1.0000
   289,'1 ',    -1.929,     0.000,     0.000,     0.000,1.00747,     0,    18.700, 0.00000E+0, 2.11000E-1, 0.00000E+0, 0.00000E+0,1.00000,1,  100.0,     0.000,   -18.700,  17,1.0000
   289,'2 ',    -1.929,     0.000,     0.000,     0.000,1.00747,     0,    18.700, 0.00000E+0, 2.11000E-1, 0.00000E+0, 0.00000E+0,1.00000,1,  100.0,     0.000,   -18.700,  17,1.0000
   332,'1 ',     6.475,    -0.775,     5.500,    -3.700,1.04763,     0,    12.500, 0.00000E+0, 1.30000E-1, 0.00000E+0, 0.00000E+0,1.00000,1,  100.0,    11.300,     0.000,   4,1.0000
   342,'4A',   298.153,    28.245,   181.000,  -123.000,1.02500,     0,   483.000, 2.00000E-3, 2.50000E-1, 0.00000E+0, 0.00000E+0,1.00000,1,  100.0,   430.000,   169.000,  17,1.0000
   345,'5A',   325.273,    18.236,   181.000,  -123.000,1.02500,     0,   483.700, 2.00000E-3, 2.50000E-1, 0.00000E+0, 0.00000E+0,1.00000,1,  100.0,   435.400,   150.000,  17,1.0000
   350,'6A',   313.159,    31.311,   210.000,   -50.000,1.02500,     0,   472.800, 2.00000E-3, 2.47000E-1, 0.00000E+0, 0.00000E+0,1.00000,1,  100.0,   425.000,   150.000,  17,1.0000
   377,'1 ',     0.678,     0.013,     2.400,    -1.600,1.03085,     0,     5.600, 2.00000E-3, 2.00000E-1, 0.00000E+0, 0.00000E+0,1.00000,1,  100.0,     5.000,     0.000,  17,1.0000
   381,'1 ',     0.000,    -1.200,     1.700,    -1.200,1.04255,     0,     4.000, 2.00000E-3, 2.00000E-1, 0.00000E+0, 0.00000E+0,1.00000,0,  100.0,     3.600,     0.000,  17,1.0000
   383,'1 ',   144.764,   -37.000,    48.000,   -37.000,1.01800,     0,   165.000, 7.40000E-3, 1.41000E-1, 0.00000E+0, 0.00000E+0,1.00000,1,  100.0,   158.000,    55.000,  17,1.0000
   383,'2 ',   120.000,    -2.073,    53.000,   -47.000,1.01800,     0,   171.000, 7.40000E-3, 1.41000E-1, 0.00000E+0, 0.00000E+0,1.00000,0,  100.0,   163.000,    57.000,  17,1.0000
   383,'3 ',   100.000,    -1.727,    35.000,   -43.000,1.01800,     0,   157.000, 7.50000E-3, 1.31000E-1, 0.00000E+0, 0.00000E+0,1.00000,0,  100.0,   133.000,    50.000,  17,1.0000
   403,'3 ',   239.000,   -99.900,   310.400,   -99.900,1.03500,   610,   586.000, 4.00000E-3, 2.77000E-1, 0.00000E+0, 0.00000E+0,1.00000,1,  100.0,   498.000,   142.000,  17,1.0000
   405,'1 ',    77.100,   -24.700,    25.800,   -24.700,1.05000,     0,    93.900, 3.30000E-3, 1.60000E-1, 0.00000E+0, 0.00000E+0,1.00000,1,  100.0,    82.500,     8.000, 251,1.0000
   407,'1 ',     6.591,     1.956,     6.000,    -4.100,1.02756,     0,    13.800, 0.00000E+0, 2.30000E-1, 0.00000E+0, 0.00000E+0,1.00000,1,  100.0,    12.400,     0.000,  17,1.0000
   408,'1 ',    24.406,     6.325,    15.400,   -10.500,1.02671,     0,    35.300, 0.00000E+0, 1.80000E-1, 0.00000E+0, 0.00000E+0,1.00000,1,  100.0,    31.800,     0.000,  17,1.0000
   414,'1 ',    11.905,    -1.517,    10.000,    -6.800,1.02000,     0,    22.800, 0.00000E+0, 2.40000E-1, 0.00000E+0, 0.00000E+0,1.00000,1,  100.0,    20.600,     0.000,  17,1.0000
   422,'1A',   379.161,    31.954,   208.000,  -110.000,1.00000,     0,   477.000, 5.07000E-3, 3.00000E-1, 0.00000E+0, 0.00000E+0,1.00000,1,  100.0,   415.000,   164.000,  17,1.0000
   424,'2A',   384.896,    33.636,   208.000,  -110.000,1.00000,     0,   477.000, 5.07000E-3, 3.00000E-1, 0.00000E+0, 0.00000E+0,1.00000,1,  100.0,   415.000,   199.000,  17,1.0000
   450,'1 ',     0.107,     1.919,     2.400,    -1.600,1.04788,     0,     7.000, 0.00000E+0, 2.00000E-1, 0.00000E+0, 0.00000E+0,1.00000,1,  100.0,     6.300,     0.000,  17,1.0000
   479,'1 ',     0.000,     8.700,     8.700,    -5.900,1.04761,     0,    20.000, 2.00000E-3, 2.50000E-1, 0.00000E+0, 0.00000E+0,1.00000,0,  100.0,    18.000,    -1.000,  17,1.0000
   490,'3 ',   494.599,   111.053,   255.400,  -173.300,1.01100,     0,   586.000, 1.89000E-3, 2.77000E-1, 0.00000E+0, 0.00000E+0,1.00000,1,  100.0,   527.400,   142.000,   5,1.0000
   491,'1 ',   422.000,    87.060,   138.400,   -34.400,1.00700,     0,   482.400, 1.89000E-3, 2.50000E-1, 0.00000E+0, 0.00000E+0,1.00000,1,  100.0,   422.000,   123.600,   5,1.0000
   492,'2A',   422.000,    92.400,   208.000,  -112.000,1.01000,     0,   482.400, 1.85000E-3, 2.50000E-1, 0.00000E+0, 0.00000E+0,1.00000,1,  100.0,   422.000,   200.000,   5,1.0000
   680,'1 ',    56.300,     6.197,    27.200,   -18.500,1.02000,     0,    62.500, 0.00000E+0, 2.10000E-1, 0.00000E+0, 0.00000E+0,1.00000,1,  100.0,    56.300,     0.000,  17,1.0000
   680,'10',    31.900,     3.511,    15.400,   -10.500,1.02000,     0,    35.400, 0.00000E+0, 2.20000E-1, 0.00000E+0, 0.00000E+0,1.00000,1,  100.0,    31.900,    12.000,  17,1.0000
   680,'11',    31.900,     3.511,    15.400,   -10.500,1.02000,     0,    35.400, 0.00000E+0, 2.20000E-1, 0.00000E+0, 0.00000E+0,1.00000,1,  100.0,    31.900,    12.000,  17,1.0000
   680,'12',     4.000,     0.440,    18.600,   -12.600,1.02000,     0,    42.600, 0.00000E+0, 1.60000E-1, 0.00000E+0, 0.00000E+0,1.00000,1,  100.0,    38.300,     4.000,  17,1.0000
   680,'14',    35.000,    -4.766,    27.700,   -12.600,1.02000,     0,    67.500, 1.40000E-3, 1.90000E-1, 0.00000E+0, 0.00000E+0,1.00000,0,  100.0,    45.000,    17.000,  17,1.0000
   680,'15',    32.000,    -4.358,    22.000,   -14.100,1.02000,     0,    71.200, 5.30000E-3, 1.44000E-1, 0.00000E+0, 0.00000E+0,1.00000,0,  100.0,    43.000,    17.000,  17,1.0000
   680,'3 ',    30.000,    -4.086,    18.500,   -12.600,1.02000,     0,    42.600, 0.00000E+0, 1.60000E-1, 0.00000E+0, 0.00000E+0,1.00000,0,  100.0,    38.300,     4.000,  17,1.0000
   680,'9 ',     0.000,     0.000,    19.600,   -13.300,1.02000,     0,    44.900, 0.00000E+0, 2.60000E-1, 0.00000E+0, 0.00000E+0,1.00000,0,  100.0,    40.400,     0.000,  17,1.0000
  1031,'1 ',     0.000,     0.000,    13.900,    -9.500,1.02000,     0,    32.000, 3.50000E-3, 7.00000E-2, 0.00000E+0, 0.00000E+0,1.00000,0,  100.0,    28.800,     4.000,   1,1.0000
  1032,'2 ',     9.900,     9.662,    25.000,   -18.000,1.02000,     0,    49.000, 7.20000E-3, 1.45000E-1, 0.00000E+0, 0.00000E+0,1.00000,1,  100.0,    44.100,     4.000,   1,1.0000
  1033,'3 ',     0.000,     0.000,     9.500,    -6.400,1.02000,     0,    21.700, 4.50000E-3, 9.00000E-2, 0.00000E+0, 0.00000E+0,1.00000,0,  100.0,    19.500,     3.000,   1,1.0000
  1035,'4 ',    32.751,   -17.300,    25.500,   -17.300,1.02000,     0,    58.600, 1.40000E-3, 1.62000E-1, 0.00000E+0, 0.00000E+0,1.00000,1,  100.0,    52.700,     9.000,  21,1.0000
  1037,'5 ',    30.258,    -7.291,    25.500,   -17.300,1.02000,     0,    60.000, 1.40000E-3, 1.98000E-1, 0.00000E+0, 0.00000E+0,1.00000,1,  100.0,    52.700,     2.000,  21,1.0000
  1087,'2 ',     5.000,    -9.200,    13.400,    -9.200,1.00000,     0,    29.500, 6.00000E-3, 1.40000E-1, 0.00000E+0, 0.00000E+0,1.00000,0,  100.0,    25.100,     5.000,  33,1.0000
  1089,'1A',    28.706,   -13.900,    20.500,   -13.900,1.00000,     0,    47.100, 9.30000E-3, 1.88000E-1, 0.00000E+0, 0.00000E+0,1.00000,1,  100.0,    40.000,     2.270,  33,1.0000
  1101,'2 ',    14.681,    -9.500,    13.900,    -9.500,1.05000,     0,    32.000, 3.10000E-3, 1.98000E-1, 0.00000E+0, 0.00000E+0,1.00000,1,  100.0,    28.800,     0.000,  30,1.0000
  1146,'1A',    15.286,   -16.200,    30.000,   -16.200,1.01000,     0,    57.900, 0.00000E+0, 1.55000E-1, 0.00000E+0, 0.00000E+0,1.00000,1,  100.0,    49.200,    10.000,  39,1.0000
  1148,'1 ',    86.508,   -32.621,    72.600,   -49.300,1.02600,     0,   167.000, 3.00000E-3, 1.85000E-1, 0.00000E+0, 0.00000E+0,1.00000,1,  100.0,   151.100,     0.000,   1,1.0000
  1167,'1 ',     0.000,     0.000,     5.400,    -3.700,1.03000,     0,    12.500, 4.50000E-3, 1.68000E-1, 0.00000E+0, 0.00000E+0,1.00000,0,  100.0,    11.300,     0.750,   1,1.0000
  1168,'2 ',     0.000,     0.000,     4.100,    -3.700,1.00000,     0,     9.400, 5.00000E-3, 1.68000E-1, 0.00000E+0, 0.00000E+0,1.00000,0,  100.0,     8.400,     0.750,   1,1.0000
  1171,'1 ',     9.000,   -17.300,    25.500,   -17.300,1.02000,     0,    60.000, 1.40000E-3, 1.98000E-1, 0.00000E+0, 0.00000E+0,1.00000,1,  100.0,    52.700,     9.000,   1,1.0000
  1173,'2 ',     2.000,   -17.300,    25.500,   -17.300,1.00000,     0,    72.000, 5.00000E-4, 1.60000E-1, 0.00000E+0, 0.00000E+0,1.00000,1,  100.0,    52.700,     2.000,   1,1.0000
  1205,'1 ',   100.000,    35.637,    44.800,   -30.400,1.09500,     0,   102.800, 4.00000E-3, 2.30000E-1, 0.00000E+0, 0.00000E+0,1.00000,1,  100.0,   100.000,    16.450,   9,1.0000
  1205,'11',    22.000,     7.840,    27.000,   -13.000,1.09500,     0,    33.800, 4.50000E-3, 1.47000E-1, 0.00000E+0, 0.00000E+0,1.00000,1,  100.0,    22.000,     2.000,   9,1.0000
  1205,'12',    86.000,    30.648,    39.700,   -30.000,1.09500,     0,    93.800, 3.40000E-3, 1.36000E-1, 0.00000E+0, 0.00000E+0,1.00000,1,  100.0,    86.000,    23.000,   9,1.0000
  1205,'15',     0.000,     0.000,     0.000,     0.000,1.09500,     0,    10.000, 0.00000E+0, 2.75000E-1, 0.00000E+0, 0.00000E+0,1.00000,0,  100.0,     0.000,    -8.000,   9,1.0000
  1205,'16',     0.000,     0.000,     0.000,     0.000,1.09500,     0,    10.000, 0.00000E+0, 2.75000E-1, 0.00000E+0, 0.00000E+0,1.00000,0,  100.0,     0.000,   -10.000,   9,1.0000
...